test/test_files/input_tests/WECC179_powerflow.m
function mpc = WECC179_powerflow
%WECC179_POWERFLOW

%% MATPOWER Case Format : Version 2
mpc.version = '2';

%%-----  Power Flow Data  -----%%
%% system MVA base
mpc.baseMVA = 100;

%% bus data
%	bus_i	type	Pd	Qd	Gs	Bs	area	Vm	Va	baseKV	zone	Vmax	Vmin
mpc.bus = [
	2	1	1689.32033	-54.0582504	0	0	1	0.98251	-37.4503	500	1	1.1	0.9;
	3	1	0	0	0	0	1	0.98207	-28.7694	345	1	1.1	0.9;
	4	2	108.16	0	0	0	1	1.04	-31.031	20	1	1.1	0.9;
	5	1	2214.71808	-119.689019	0	0	1	0.97079	6.3498	345	1	1.1	0.9;
	6	2	90.25	0	0	0	1	0.95	13.7365	22	1	1.1	0.9;
	7	1	0	0	0	-113	1	1.06975	-20.2397	500	1	1.1	0.9;
	8	1	244.00188	-57.1719886	0	-155	1	1.01041	-17.1876	345	1	1.1	0.9;
	9	2	100	0	0	0	1	1	-10.2788	22	1	1.1	0.9;
	10	1	142.084993	24.2063196	0	0	1	1.0085	-17.7389	230	1	1.1	0.9;
	11	2	100	0	0	0	1	1	23.8855	20	1	1.1	0.9;
	12	1	103.108421	80.1954386	0	-190	2	1.07035	-35.3857	500	1	1.1	0.9;
	13	2	100	0	0	0	2	1	-29.252	26	1	1.1	0.9;
	14	1	0	0	0	-391	2	1.06574	-36.3433	500	1	1.1	0.9;
	15	2	92.16	0	0	0	2	0.96	-33.9302	24	1	1.1	0.9;
	16	1	868.453429	226.581623	0	-146	2	1.04623	-41.8978	500	1	1.1	0.9;
	17	1	900.855184	5.36223324	0	390	1	1.03559	-16.4421	345	1	1.1	0.9;
	18	2	100	0	0	0	1	1	-13.4548	22	1	1.1	0.9;
	19	1	684.83701	-76.5863107	0	-427	2	1.05354	-41.7968	500	1	1.1	0.9;
	20	1	0	0	0	0	2	1.06835	-34.2579	500	1	1.1	0.9;
	21	1	0	0	0	0	2	1.05908	-37.4831	500	1	1.1	0.9;
	22	1	0	0	0	0	2	1.0458	-33.3331	500	1	1.1	0.9;
	23	1	0	0	0	0	2	1.02401	-43.9102	500	1	1.1	0.9;
	24	1	0	0	0	0	2	1.05457	-34.6603	500	1	1.1	0.9;
	25	1	0	0	0	0	2	1.03931	-43.5131	500	1	1.1	0.9;
	26	1	0	0	0	0	2	1.05075	-27.8307	500	1	1.1	0.9;
	27	1	0	0	0	0	2	1.03321	-52.5411	500	1	1.1	0.9;
	28	1	0	0	0	0	1	1.06731	-18.2239	500	1	1.1	0.9;
	29	1	0	0	0	0	1	1.06601	-39.3355	500	1	1.1	0.9;
	30	2	100	0	0	0	1	1	4.9106	20	1	1.1	0.9;
	31	1	4725.87622	1074.06278	0	0	1	1.03637	1.1202	500	1	1.1	0.9;
	32	1	0	0	0	0	1	1.08157	28.7964	500	1	1.1	0.9;
	33	1	0	0	0	0	1	0.98075	33.2841	230	1	1.1	0.9;
	34	1	3609.58237	701.863238	0	0	1	1.00133	42.1628	230	1	1.1	0.9;
	35	2	104.04	0	0	0	1	1.02	47.0785	20	1	1.1	0.9;
	36	2	101.8081	0	0	0	1	1.009	-8.6991	22	1	1.1	0.9;
	37	1	-2029.73299	1058.46978	0	912	2	1.04407	-51.8333	500	1	1.1	0.9;
	38	1	0	0	0	0	2	1.06305	-55.3977	500	1	1.1	0.9;
	39	1	0	0	0	0	2	1.01894	-56.2418	230	1	1.1	0.9;
	40	2	104.04	0	0	0	2	1.02	-54.9836	18	1	1.1	0.9;
	41	1	136.907491	27.3814982	0	0	2	1.00704	-60.34	230	1	1.1	0.9;
	42	1	0	0	0	0	2	1.01991	-60.1609	230	1	1.1	0.9;
	43	2	100	0	0	0	2	1	-56.8355	18	1	1.1	0.9;
	44	1	2242.2706	990.72755	0	430	1	1.04508	-24.6422	345	1	1.1	0.9;
	45	2	110.25	0	0	0	1	1.05	-19.9902	26	1	1.1	0.9;
	46	1	-75.3539996	-17.596401	0	0	2	1.01739	-56.5894	230	1	1.1	0.9;
	47	2	104.04	0	0	0	2	1.02	-56.5448	11.5	1	1.1	0.9;
	48	1	124.91527	25.8089401	0	0	2	1.01605	-56.8124	230	1	1.1	0.9;
	49	1	0	0	0	-80	2	1.05532	-54.817	500	1	1.1	0.9;
	50	1	325.669694	66.1516565	0	0	2	1.00882	-61.3767	230	1	1.1	0.9;
	51	1	245.724303	-65.4712308	0	0	2	1.01781	-61.5736	138	1	1.1	0.9;
	52	1	0	0	0	0	2	1.02174	-60.3874	287	1	1.1	0.9;
	53	1	0	0	0	0	2	1.02174	-60.3874	287	1	1.1	0.9;
	54	1	141.454796	28.7009731	0	0	2	1.01244	-61.7271	230	1	1.1	0.9;
	55	1	820.988221	134.256677	0	0	2	1.00813	-59.3963	230	1	1.1	0.9;
	56	1	0	0	0	0	2	1.02634	-57.102	500	1	1.1	0.9;
	57	1	119.363517	24.4848241	0	0	2	1.01005	-61.4337	230	1	1.1	0.9;
	58	1	122.994976	25.4121851	0	0	2	1.00821	-60.6306	230	1	1.1	0.9;
	59	1	911.361908	-6.36526285	0	0	2	1.01324	-57.9563	230	1	1.1	0.9;
	60	1	-2878.4279	1718.12333	0	2146	2	1.0192	-55.9142	230	1	1.1	0.9;
	61	1	402.621676	80.9259529	0	0	2	1.00202	-56.967	230	1	1.1	0.9;
	62	1	209.967494	18.0089079	0	0	2	1.01155	-58.1596	230	1	1.1	0.9;
	63	1	-138.604906	34.5975036	0	-108	2	1.03656	-54.1443	287	1	1.1	0.9;
	64	1	0	0	0	0	2	1.04342	-52.2799	500	1	1.1	0.9;
	65	2	100	0	0	0	1	1	31.4843	20	1	1.1	0.9;
	66	1	1907.41796	336.603169	0	0	1	1.05925	23.1714	500	1	1.1	0.9;
	67	1	175.326438	34.243445	0	0	1	1.0468	-24.0523	115	1	1.1	0.9;
	68	1	-73.8231789	174.988276	0	576.85	1	1.04579	-21.3582	230	1	1.1	0.9;
	69	1	-50.4939725	25.1327465	0	0	1	1.06883	-19.8339	500	1	1.1	0.9;
	70	2	111.3025	0	0	0	1	1.055	-14.664	13.8	1	1.1	0.9;
	71	1	3396.56888	1820.09317	0	792	1	1.04055	-21.9051	230	1	1.1	0.9;
	72	1	0	0	0	462	1	1.06918	-19.9602	500	1	1.1	0.9;
	73	1	-1737.8884	-56.9799475	0	0	1	1.06752	-9.4709	500	1	1.1	0.9;
	74	1	0	0	0	0	1	1.08379	-13.1501	500	1	1.1	0.9;
	75	1	2730.9955	416.4134	0	0	1	1.02805	-22.0708	500	1	1.1	0.9;
	76	1	3627.61177	1246.99155	0	1019.35	1	1.06472	-17.2628	500	1	1.1	0.9;
	77	3	100	0	0	0	1	1	0	13.8	1	1.1	0.9;
	78	1	3954.81709	564.97387	0	550	1	1.06299	-13.0889	500	1	1.1	0.9;
	79	2	100	0	0	0	1	1	10.941	20	1	1.1	0.9;
	80	1	5598.72456	447.897965	0	1200	1	1.05818	-3.4224	500	1	1.1	0.9;
	81	1	0	0	0	-220	1	1.03346	-27.6242	500	1	1.1	0.9;
	82	1	-73.5510282	-107.12387	0	-674	1	1.05089	-24.7798	500	1	1.1	0.9;
	83	1	-365.668855	-128.361633	0	-110	1	1.03859	-31.9562	500	1	1.1	0.9;
	84	1	0	0	0	-220	1	1.05866	-15.7026	500	1	1.1	0.9;
	85	1	606.54012	-411.651819	0	-870	1	0.99716	-12.7317	345	1	1.1	0.9;
	86	1	0	0	0	0	1	1.04344	-26.4919	500	1	1.1	0.9;
	87	1	0	0	0	0	1	1.05351	-27.2257	500	1	1.1	0.9;
	88	1	0	0	0	0	1	1.05074	-23.0627	500	1	1.1	0.9;
	89	1	0	0	0	0	1	1.03702	-22.1124	500	1	1.1	0.9;
	90	1	0	0	0	0	1	1.04577	-28.1712	500	1	1.1	0.9;
	91	1	0	0	0	0	1	1.06432	-30.1475	500	1	1.1	0.9;
	92	1	0	0	0	0	1	1.05219	-24.865	500	1	1.1	0.9;
	93	1	0	0	0	0	1	1.05277	-30.9071	500	1	1.1	0.9;
	94	1	0	0	0	0	1	1.05375	-25.6035	500	1	1.1	0.9;
	95	1	0	0	0	0	1	1.06381	-30.4472	500	1	1.1	0.9;
	96	1	0	0	0	0	1	1.05189	-24.8654	500	1	1.1	0.9;
	97	1	0	0	0	0	1	1.052	-31.2494	500	1	1.1	0.9;
	98	1	0	0	0	0	1	1.05303	-25.6434	500	1	1.1	0.9;
	99	1	0	0	0	0	1	0.97001	-4.8692	500	1	1.1	0.9;
	100	1	-54.3863472	25.1207147	0	0	3	1.12073	-45.9796	200	1	1.1	0.9;
	101	1	267.975471	-98.0708709	0	0	3	1.12856	-41.58	200	1	1.1	0.9;
	102	1	54.1590689	27.0795344	0	0	2	1.04076	-56.4925	500	1	1.1	0.9;
	103	2	96.04	0	0	0	2	0.98	-52.6227	25	1	1.1	0.9;
	104	1	323.216468	-8.05391855	0	-91	2	1.02943	-58.0966	500	1	1.1	0.9;
	105	1	35.2516131	-0.128187684	0	0	3	1.1322	-45.6619	200	1	1.1	0.9;
	106	1	10.2631182	0	0	0	3	1.13194	-45.9292	200	1	1.1	0.9;
	107	1	280.898355	14.8399131	0	0	2	1.02956	-60.0765	500	1	1.1	0.9;
	108	1	60.0028831	-355.053032	0	-327	2	1.03884	-59.0218	500	1	1.1	0.9;
	109	1	1014.22449	42.520214	0	-130	2	1.14206	-62.8842	200	1	1.1	0.9;
	110	1	42.1448053	22.6528328	0	0	2	1.02646	-60.3664	500	1	1.1	0.9;
	111	1	-198.022196	64.435794	0	0	3	1.02359	-40.335	500	1	1.1	0.9;
	112	2	104.04	0	0	0	3	1.02	-25.3437	20	1	1.1	0.9;
	113	1	184.542269	0	0	-128	3	1.11665	-35.4271	200	1	1.1	0.9;
	114	1	0	0	0	-91	3	1.02073	-37.1649	500	1	1.1	0.9;
	115	1	-0.700966333	118.663586	0	-91	3	1.00069	-41.5767	500	1	1.1	0.9;
	116	2	110.25	0	0	0	3	1.05	-47.2764	20	1	1.1	0.9;
	117	1	1108.4936	68.7165718	0	-32	3	1.1198	-51.169	200	1	1.1	0.9;
	118	2	100	0	0	0	3	1	-40.6244	20	1	1.1	0.9;
	119	1	5540.61474	3416.76136	0	1500	3	0.98931	-48.9106	500	1	1.1	0.9;
	120	1	0	0	0	0	3	1.03386	-32.7839	500	1	1.1	0.9;
	121	1	0	0	0	0	3	1.00227	-47.8423	500	1	1.1	0.9;
	122	1	0	0	0	0	3	1.01341	-40.0548	500	1	1.1	0.9;
	123	1	0	0	0	0	3	0.9802	-56.975	500	1	1.1	0.9;
	124	1	0	0	0	0	3	1.02534	-30.8866	500	1	1.1	0.9;
	125	1	0	0	0	0	3	1.00041	-45.8825	500	1	1.1	0.9;
	126	1	0	0	0	0	3	1.02534	-30.8866	500	1	1.1	0.9;
	127	1	0	0	0	0	3	1.00041	-45.8825	500	1	1.1	0.9;
	128	1	0	0	0	0	3	0.99722	-34.9287	500	1	1.1	0.9;
	129	1	0	0	0	0	3	0.99546	-55.5363	500	1	1.1	0.9;
	130	1	0	0	0	0	3	1.00279	-36.5298	500	1	1.1	0.9;
	131	1	0	0	0	0	3	0.99181	-51.4577	500	1	1.1	0.9;
	132	1	0	0	0	0	2	0.9738	-46.7734	500	1	1.1	0.9;
	133	1	0	0	0	0	2	1.04701	-62.3325	500	1	1.1	0.9;
	134	1	0	0	0	0	2	0.96702	-44.7922	500	1	1.1	0.9;
	135	1	0	0	0	0	2	1.04322	-60.4501	500	1	1.1	0.9;
	136	1	908.200936	20.7952551	0	0	2	1.03004	-55.4922	500	1	1.1	0.9;
	137	1	166.7008	17.146368	0	0	2	0.976	-59.8241	230	1	1.1	0.9;
	138	2	104.04	0	0	0	2	1.02	-36.7659	20	1	1.1	0.9;
	139	1	988.580415	-12.4900994	0	-319	2	1.04672	-43.8853	500	1	1.1	0.9;
	140	2	84.246698	0	0	0	2	0.91786	-49.4102	20	1	1.1	0.9;
	141	1	2536.9373	509.332446	0	0	2	0.91959	-56.5084	12.47	1	1.1	0.9;
	142	1	221.194138	-30.5468888	0	0	2	1.04078	-56.4108	500	1	1.1	0.9;
	143	1	339.321172	57.9920922	0	0	2	0.94821	-59.8702	230	1	1.1	0.9;
	144	2	110.25	0	0	0	2	1.05	-56.0979	20	1	1.1	0.9;
	145	1	3279.77938	1258.7662	0	400	2	1.02892	-60.357	500	1	1.1	0.9;
	146	1	0	0	0	0	2	1.02242	-60.3277	230	1	1.1	0.9;
	147	1	0	0	0	-196	2	1.06626	-39.9609	500	1	1.1	0.9;
	148	2	110.25	0	0	0	2	1.05	-31.6656	22	1	1.1	0.9;
	149	2	102.01	0	0	0	2	1.01	-48.1752	20	1	1.1	0.9;
	150	1	3065.09562	76.6765421	0	0	2	0.99148	-60.4253	230	1	1.1	0.9;
	151	1	1303.74171	77.1645501	0	0	2	1.02954	-61.0504	500	1	1.1	0.9;
	152	1	429.655524	43.3888584	0	0	2	1.02872	-59.3033	500	1	1.1	0.9;
	153	1	0	0	0	0	2	1.04132	-59.0132	500	1	1.1	0.9;
	154	1	1602.74539	-185.007631	0	-190	2	0.97396	-60.9851	230	1	1.1	0.9;
	155	1	489.371632	87.3534243	0	-60	1	1.03402	-20.8466	345	1	1.1	0.9;
	156	1	36.3404962	12.7566933	0	0	1	1.03537	-20.7335	345	1	1.1	0.9;
	157	1	159.636891	-8.52115839	0	0	1	1.03857	-21.6309	230	1	1.1	0.9;
	158	1	124.143418	41.0603552	0	-220	1	1.03406	-13.4409	345	1	1.1	0.9;
	159	2	110.25	0	0	0	1	1.05	-8.7485	20	1	1.1	0.9;
	160	1	-67.7975831	13.9969204	0	0	1	1.04571	-20.9366	345	1	1.1	0.9;
	161	1	276.960169	108.611831	0	0	1	1.04217	-18.1772	230	1	1.1	0.9;
	162	2	100	0	0	0	1	1	-15.3757	20	1	1.1	0.9;
	163	1	0	0	0	0	1	1.0385	-16.7037	345	1	1.1	0.9;
	164	1	34.3997628	12.518901	0	-18	1	1.04336	-16.4215	345	1	1.1	0.9;
	165	1	149.032162	75.3604559	0	0	1	1.02736	-19.5436	345	1	1.1	0.9;
	166	1	413.663633	-46.9328132	0	-50	1	1.04473	-19.3685	345	1	1.1	0.9;
	167	1	196.148377	83.2305274	0	0	1	1.02969	-21.5569	345	1	1.1	0.9;
	168	1	0	0	0	0	3	1.04428	-27.9028	500	1	1.1	0.9;
	169	1	0	0	0	0	3	1.01547	-41.3622	500	1	1.1	0.9;
	170	1	0	0	0	0	3	1.04489	-27.0463	500	1	1.1	0.9;
	171	1	0	0	0	0	3	1.01699	-41.3943	500	1	1.1	0.9;
	172	1	0	0	0	0	3	1.04131	-25.5482	500	1	1.1	0.9;
	173	1	0	0	0	0	3	1.02265	-46.8771	500	1	1.1	0.9;
	174	1	0	0	0	0	2	1.02656	-59.0549	500	1	1.1	0.9;
	175	1	0	0	0	0	2	1.03446	-58.9804	500	1	1.1	0.9;
	176	1	0	0	0	0	2	1.03884	-59.0218	500	1	1.1	0.9;
	177	1	0	0	0	0	2	1.04132	-59.0132	500	1	1.1	0.9;
	178	1	0	0	0	0	2	1.02602	-59.0653	500	1	1.1	0.9;
	179	1	0	0	0	0	2	1.03693	-58.9746	500	1	1.1	0.9;
	180	1	0	0	0	-220	1	0.98467	-16.9154	500	1	1.1	0.9;
];

%% generator data
%	bus	Pg	Qg	Qmax	Qmin	Vg	mBase	status	Pmax	Pmin	Pc1	Pc2	Qc1min	Qc1max	Qc2min	Qc2max	ramp_agc	ramp_10	ramp_30	ramp_q	apf	mu_Pmax	mu_Pmin	mu_Qmax	mu_Qmin
mpc.gen = [
	4	800	102.849	300	-300	1.04	914	1	9999	0	0	0	0	0	0	0	0	0	0	0	0	0.0000	0.0000	0.0000	0.0000;
	6	1048	-97.725	400	-400	0.95	1488	1	9999	0	0	0	0	0	0	0	0	0	0	0	0	0.0000	0.0000	0.0000	0.0000;
	9	2160	-52.062	700	-500	1	2458	1	9999	0	0	0	0	0	0	0	0	0	0	0	0	0.0000	0.0000	0.0000	0.0000;
	11	2050	495.478	900	-900	1	3000	1	9999	0	0	0	0	0	0	0	0	0	0	0	0	0.0000	0.0000	0.0000	0.0000;
	13	1690	219.4	700	-280	1	3540	1	9999	0	0	0	0	0	0	0	0	0	0	0	0	0.0000	0.0000	0.0000	0.0000;
	15	2640	420.128	1300	-900	0.96	3118	1	9999	0	0	0	0	0	0	0	0	0	0	0	0	0.0000	0.0000	0.0000	0.0000;
	18	962	148.858	300	-300	1	2054	1	9999	0	0	0	0	0	0	0	0	0	0	0	0	0.0000	0.0000	0.0000	0.0000;
	30	4450	1009.069	4000	-4000	1	9004	1	9999	0	0	0	0	0	0	0	0	0	0	0	0	0.0000	0.0000	0.0000	0.0000;
	35	4480	1140.084	5320	-3500	1.02	6100	1	9999	0	0	0	0	0	0	0	0	0	0	0	0	0.0000	0.0000	0.0000	0.0000;
	36	1640	313.757	600	-525	1.009	1770	1	9999	0	0	0	0	0	0	0	0	0	0	0	0	0.0000	0.0000	0.0000	0.0000;
	40	200	3.584	268	-134	1.02	500	1	9999	0	0	0	0	0	0	0	0	0	0	0	0	0.0000	0.0000	0.0000	0.0000;
	43	325	111.062	300	-220	1	540	1	9999	0	0	0	0	0	0	0	0	0	0	0	0	0.0000	0.0000	0.0000	0.0000;
	45	1780	681.851	850	-440	1.05	1982	1	9999	0	0	0	0	0	0	0	0	0	0	0	0	0.0000	0.0000	0.0000	0.0000;
	47	110	44.469	100	-100	1.02	113	1	9999	0	0	0	0	0	0	0	0	0	0	0	0	0.0000	0.0000	0.0000	0.0000;
	65	2910	768.499	1500	-1000	1	3085	1	9999	0	0	0	0	0	0	0	0	0	0	0	0	0.0000	0.0000	0.0000	0.0000;
	70	1301	627.955	992	-711	1.055	1199	1	9999	0	0	0	0	0	0	0	0	0	0	0	0	0.0000	0.0000	0.0000	0.0000;
	77	7775.702	1966.341	2649	-1850	1	5421	1	9999	0	0	0	0	0	0	0	0	0	0	0	0	0.0000	0.0000	0.0000	0.0000;
	79	9950	1534.627	5780	-2000	1	13000	1	9999	0	0	0	0	0	0	0	0	0	0	0	0	0.0000	0.0000	0.0000	0.0000;
	103	765	-89.413	330	-310	0.98	1685	1	9999	0	0	0	0	0	0	0	0	0	0	0	0	0.0000	0.0000	0.0000	0.0000;
	112	1057	60.611	400	-400	1.02	1022	1	9999	0	0	0	0	0	0	0	0	0	0	0	0	0.0000	0.0000	0.0000	0.0000;
	116	594	240.345	600	-300	1.05	895	1	9999	0	0	0	0	0	0	0	0	0	0	0	0	0.0000	0.0000	0.0000	0.0000;
	118	3467	1865.578	2500	-1000	1	6840	1	9999	0	0	0	0	0	0	0	0	0	0	0	0	0.0000	0.0000	0.0000	0.0000;
	138	982.7	-98.575	300	-300	1.02	2104	1	9999	0	0	0	0	0	0	0	0	0	0	0	0	0.0000	0.0000	0.0000	0.0000;
	140	3004	650	650	-300	1.02	9000	1	9999	0	0	0	0	0	0	0	0	0	0	0	0	0.0000	0.0000	0.0000	0.0000;
	144	1690	840.769	900	-400	1.05	3000	1	9999	0	0	0	0	0	0	0	0	0	0	0	0	0.0000	0.0000	0.0000	0.0000;
	148	1680	483.592	700	-300	1.05	1818	1	9999	0	0	0	0	0	0	0	0	0	0	0	0	0.0000	0.0000	0.0000	0.0000;
	149	2200	541.43	600	-600	1.01	2500	1	9999	0	0	0	0	0	0	0	0	0	0	0	0	0.0000	0.0000	0.0000	0.0000;
	159	1665	23.189	9999	-9999	1.05	2229	1	9999	0	0	0	0	0	0	0	0	0	0	0	0	0.0000	0.0000	0.0000	0.0000;
	162	445	107.506	9999	-9999	1	832	1	9999	0	0	0	0	0	0	0	0	0	0	0	0	0.0000	0.0000	0.0000	0.0000;
];

%% branch data
%	fbus	tbus	r	x	b	rateA	rateB	rateC	ratio	angle	status	angmin	angmax
mpc.branch = [
	3	8	0.00179	0.01988	2.576	0	0	0	0	0	1	-360	360;
	5	17	0.00977	0.11	2	0	0	0	0	0	1	-360	360;
	5	160	0.00811	0.1369	2.4348	0	0	0	0	0	1	-360	360;
	7	28	-0	-0.00408	0	0	0	0	0	0	1	-360	360;
	8	17	0.0005	0.0053	0.0882	0	0	0	0	0	1	-360	360;
	8	163	0.0048	0.0436	0.7078	0	0	0	0	0	1	-360	360;
	12	20	-0	-0.00634	0	0	0	0	0	0	1	-360	360;
	12	22	-0	-0.01188	0	0	0	0	0	0	1	-360	360;
	12	139	0.0028	0.0211	1.0194	0	0	1630	0	0	1	-360	360;
	14	21	-0	-0.00634	0	0	0	0	0	0	1	-360	360;
	14	24	-0	-0.00826	0	0	0	0	0	0	1	-360	360;
	14	26	-0	-0.01795	0	0	0	0	0	0	1	-360	360;
	14	29	-0	-0.00612	0	0	0	0	0	0	1	-360	360;
	16	19	0.0004	0.0096	0.9038	0	0	0	0	0	1	-360	360;
	16	19	0.0004	0.0096	0.9038	0	0	0	0	0	1	-360	360;
	16	136	0.00259	0.02967	2.153	0	0	1800	0	0	1	-360	360;
	16	136	0.00259	0.02967	2.153	0	0	1800	0	0	1	-360	360;
	19	23	-0	-0.01188	0	0	0	0	0	0	1	-360	360;
	19	25	-0	-0.00826	0	0	0	0	0	0	1	-360	360;
	20	21	0.00077	0.01804	1.3984	0	0	0	0	0	1	-360	360;
	22	23	0.00241	0.05865	4.8656	0	0	0	0	0	1	-360	360;
	24	25	0.00179	0.04244	3.3922	0	0	0	0	0	1	-360	360;
	26	27	0.00207	0.04959	3.9516	0	0	0	0	0	1	-360	360;
	27	139	-0	-0.01795	0	0	0	0	0	0	1	-360	360;
	28	29	0.00177	0.04189	3.3446	0	0	0	0	0	1	-360	360;
	31	32	0.0035	0.07	4.606	0	0	0	0	0	1	-360	360;
	31	80	0.00083	0.0239	3.3	0	0	0	0	0	1	-360	360;
	33	34	0.002	0.02	0.8	0	0	0	0	0	1	-360	360;
	37	38	0.00074	0.01861	1.4026	0	0	0	0	0	1	-360	360;
	37	56	0.00082	0.01668	1.188	0	0	0	0	0	1	-360	360;
	37	64	-0	0.00159	0.12002	0	0	0	0	0	1	-360	360;
	37	64	-0	0.00159	0.12002	0	0	0	0	0	1	-360	360;
	39	46	0.00221	0.03346	0.07338	0	0	0	0	0	1	-360	360;
	39	48	0.0029	0.038	0.0824	0	0	0	0	0	1	-360	360;
	39	59	0.00309	0.04677	0.1008	0	0	0	0	0	1	-360	360;
	39	60	0.00226	0.03422	0.07506	0	0	0	0	0	1	-360	360;
	41	55	0.00047	0.00723	0.01624	0	0	0	0	0	1	-360	360;
	41	58	0.00035	0.00536	0.01204	0	0	0	0	0	1	-360	360;
	42	50	0.0022	0.03422	0.07716	0	0	0	0	0	1	-360	360;
	42	50	0.00238	0.03669	0.08284	0	0	0	0	0	1	-360	360;
	42	57	0.00201	0.03074	0.06886	0	0	0	0	0	1	-360	360;
	42	58	0.00281	0.04296	0.09648	0	0	0	0	0	1	-360	360;
	44	160	0.0018	0.0245	0.4392	0	0	0	0	0	1	-360	360;
	44	160	0.0018	0.0245	0.4392	0	0	0	0	0	1	-360	360;
	46	48	0.00029	0.00434	0.0095	0	0	0	0	0	1	-360	360;
	48	55	0.00229	0.01583	0.0306	0	0	0	0	0	1	-360	360;
	48	55	0.00229	0.01583	0.0306	0	0	0	0	0	1	-360	360;
	48	59	0.00141	0.00967	0.0194	0	0	0	0	0	1	-360	360;
	48	59	0.00141	0.00967	0.0194	0	0	0	0	0	1	-360	360;
	48	59	0.00161	0.00971	0.01928	0	0	0	0	0	1	-360	360;
	48	59	0.00161	0.00971	0.01928	0	0	0	0	0	1	-360	360;
	48	60	0.00027	0.00393	0.00918	0	0	0	0	0	1	-360	360;
	48	60	0.00027	0.00393	0.00918	0	0	0	0	0	1	-360	360;
	48	60	0.00027	0.00393	0.00918	0	0	0	0	0	1	-360	360;
	48	62	0.00138	0.01116	0.0247	0	0	0	0	0	1	-360	360;
	48	62	0.00138	0.01116	0.0247	0	0	0	0	0	1	-360	360;
	49	64	0.00083	0.01884	1.6667	0	0	0	0	0	1	-360	360;
	50	57	0.00037	0.00366	0.0083	0	0	0	0	0	1	-360	360;
	50	58	0.00055	0.00586	0.01246	0	0	0	0	0	1	-360	360;
	52	63	0.0107	0.07905	0.3667	0	0	0	0	0	1	-360	360;
	53	63	0.0107	0.07905	0.3667	0	0	0	0	0	1	-360	360;
	54	57	0.00073	0.01025	0.02558	0	0	0	0	0	1	-360	360;
	54	57	0.00073	0.01025	0.02558	0	0	0	0	0	1	-360	360;
	55	58	0.00119	0.01244	0.02798	0	0	0	0	0	1	-360	360;
	55	58	0.00119	0.01244	0.02798	0	0	0	0	0	1	-360	360;
	55	62	0.00128	0.00979	0.0212	0	0	0	0	0	1	-360	360;
	57	58	0.0011	0.01189	0.02514	0	0	0	0	0	1	-360	360;
	61	137	0.0014	0.0264	0.102	0	0	3070	0	0	1	-360	360;
	61	150	0.00065	0.01187	0.04672	0	0	3070	0	0	1	-360	360;
	61	150	0.00065	0.01187	0.04672	0	0	3070	0	0	1	-360	360;
	64	139	0.00179	0.02524	0.53546	0	0	0	0	0	1	-360	360;
	64	139	0.00179	0.02524	0.53546	0	0	0	0	0	1	-360	360;
	64	142	0.0002	0.0041	0.2962	0	0	0	0	0	1	-360	360;
	66	78	0.0007	0.074	4.87	0	0	0	0	0	1	-360	360;
	68	71	6e-05	0.00131	0.00378	0	0	3020	0	0	1	-360	360;
	68	71	6e-05	0.00116	0.00332	0	0	3020	0	0	1	-360	360;
	69	72	1e-05	0.0003	0.01434	0	0	3450	0	0	1	-360	360;
	69	72	1e-05	0.0003	0.01844	0	0	3450	0	0	1	-360	360;
	69	76	0.00023	0.00451	0.3332	0	0	2175	0	0	1	-360	360;
	69	76	0.0002	0.00446	0.305	0	0	2175	0	0	1	-360	360;
	73	75	0.00179	0.01405	3.68	0	0	0	0	0	1	-360	360;
	74	78	0.00113	0.02069	1.8553	0	0	0	0	0	1	-360	360;
	75	76	0.00196	0.03304	1.88	0	0	0	0	0	1	-360	360;
	75	78	0.00142	0.02258	1.88	0	0	0	0	0	1	-360	360;
	76	78	0.0012	0.02316	1.7152	0	0	0	0	0	1	-360	360;
	76	78	0.0003	0.02	3.6	0	0	0	0	0	1	-360	360;
	76	82	0.00063	0.01412	1.0976	0	0	3450	0	0	1	-360	360;
	76	82	0.00109	0.02408	1.5554	0	0	3020	0	0	1	-360	360;
	76	82	0.00108	0.02409	1.5535	0	0	3020	0	0	1	-360	360;
	78	80	0.0002	0.0082	1.3	0	0	0	0	0	1	-360	360;
	78	80	0.0002	0.0082	1.3	0	0	0	0	0	1	-360	360;
	81	99	0.00264	0.05356	5.2907	0	0	3600	0	0	1	-360	360;
	81	180	-0	-0.02667	0	0	0	1732	0	0	1	-360	360;
	82	87	0.00041	0.00737	0.72694	0	0	3450	0	0	1	-360	360;
	82	91	0.00066	0.01266	0.95976	0	0	3020	0	0	1	-360	360;
	82	95	0.00066	0.01266	0.95976	0	0	3020	0	0	1	-360	360;
	83	89	0.00072	0.01382	1.2757	0	0	3600	0	0	1	-360	360;
	83	94	0.00078	0.01502	1.1381	0	0	3020	0	0	1	-360	360;
	83	98	0.00074	0.01413	1.0663	0	0	3020	0	0	1	-360	360;
	83	168	-0	-0.0072	0	0	0	1800	0	0	1	-360	360;
	83	170	-0	-0.00864	0	0	0	1800	0	0	1	-360	360;
	83	172	-0	-0.01	0	0	0	0	0	0	1	-360	360;
	84	99	-0	-0.02667	0	0	0	1732	0	0	1	-360	360;
	85	156	0.0062	0.0673	1.1156	0	0	0	0	0	1	-360	360;
	86	88	0.0006	0.01036	1.0146	0	0	3450	0	0	1	-360	360;
	86	90	0.00012	0.00238	0.21926	0	0	3600	0	0	1	-360	360;
	86	180	0.00122	0.02373	2.2071	0	0	3600	0	0	1	-360	360;
	87	88	-0	-0.01263	0	0	0	2000	0	0	1	-360	360;
	89	90	-0	-0.00858	0	0	0	2000	0	0	1	-360	360;
	91	92	-0	-0.01263	0	0	0	2400	0	0	1	-360	360;
	92	93	0.00074	0.01428	1.0822	0	0	3020	0	0	1	-360	360;
	93	94	-0	-0.01263	0	0	0	2400	0	0	1	-360	360;
	95	96	-0	-0.01263	0	0	0	2000	0	0	1	-360	360;
	96	97	0.00074	0.01428	1.0822	0	0	3020	0	0	1	-360	360;
	97	98	-0	-0.01263	0	0	0	2000	0	0	1	-360	360;
	100	101	0.02482	0.16938	0.20232	0	0	838	0	0	1	-360	360;
	100	117	0.0148	0.10101	0.12066	0	0	838	0	0	1	-360	360;
	101	105	0.01382	0.09268	0.1106	0	0	747	0	0	1	-360	360;
	101	106	0.01668	0.11381	0.13608	0	0	838	0	0	1	-360	360;
	101	113	0.01113	0.06678	0.07286	0	0	752	0	0	1	-360	360;
	101	113	0.0105	0.0654	0.0686	0	0	602	0	0	1	-360	360;
	101	113	0.01105	0.06642	0.0716	0	0	752	0	0	1	-360	360;
	101	117	0.03903	0.27403	0.31072	0	0	747	0	0	1	-360	360;
	102	104	0.00079	0.01937	1.3285	0	0	0	0	0	1	-360	360;
	102	108	0.00087	0.02087	1.4571	0	0	0	0	0	1	-360	360;
	102	108	0.00087	0.02087	1.4571	0	0	0	0	0	1	-360	360;
	104	107	0.00083	0.01985	0	0	0	2450	0	0	1	-360	360;
	104	134	0.00093	0.03644	1.3895	0	0	2450	0	0	1	-360	360;
	104	135	0.00072	0.016	1.0879	0	0	2450	0	0	1	-360	360;
	105	117	0.03058	0.2046	0.24472	0	0	747	0	0	1	-360	360;
	106	117	0.02235	0.16106	0.18342	0	0	838	0	0	1	-360	360;
	107	108	0.00153	0.0147	0	0	0	1560	0	0	1	-360	360;
	107	110	0.00053	0.01297	0	0	0	2450	0	0	1	-360	360;
	108	133	2e-05	-0.01331	0	0	0	1800	0	0	1	-360	360;
	108	135	2e-05	-0.00998	0	0	0	2450	0	0	1	-360	360;
	108	174	-0	-0.00935	0	0	0	2134	0	0	1	-360	360;
	108	176	-0	-0.00944	0	0	0	2134	0	0	1	-360	360;
	108	178	-0	-0.00935	0	0	0	2134	0	0	1	-360	360;
	111	120	-0	-0.01	0	0	0	2667	0	0	1	-360	360;
	111	173	-0	-0.01	0	0	0	0	0	0	1	-360	360;
	114	124	2e-05	-0.00998	0	0	0	1800	0	0	1	-360	360;
	114	126	2e-05	-0.00998	0	0	0	1800	0	0	1	-360	360;
	114	169	-0	-0.0072	0	0	0	1800	0	0	1	-360	360;
	114	171	-0	-0.0072	0	0	0	1800	0	0	1	-360	360;
	115	125	1e-05	-0.00666	0	0	0	1800	0	0	1	-360	360;
	115	127	1e-05	-0.00666	0	0	0	1800	0	0	1	-360	360;
	115	128	1e-05	-0.0112	0	0	0	2667	0	0	1	-360	360;
	115	130	1e-05	-0.0072	0	0	0	2667	0	0	1	-360	360;
	119	123	-0	-0.01	0	0	0	2667	0	0	1	-360	360;
	119	129	1e-05	-0.0112	0	0	0	2667	0	0	1	-360	360;
	119	131	1e-05	-0.0036	0	0	0	2667	0	0	1	-360	360;
	119	132	1e-05	-0.00755	0	0	0	0	0	0	1	-360	360;
	119	134	1e-05	-0.01098	0	0	0	2450	0	0	1	-360	360;
	120	121	0.00076	0.01952	1.8245	0	0	2894	0	0	1	-360	360;
	121	122	-0	-0.01	0	0	0	2667	0	0	1	-360	360;
	122	123	0.00082	0.02119	1.9842	0	0	2894	0	0	1	-360	360;
	124	125	0.0014	0.02338	1.475	0	0	2396	0	0	1	-360	360;
	126	127	0.0014	0.02338	1.475	0	0	2396	0	0	1	-360	360;
	128	129	0.00154	0.03409	2.3114	0	0	2450	0	0	1	-360	360;
	130	131	0.00095	0.02102	1.4252	0	0	2450	0	0	1	-360	360;
	132	133	0.00165	0.05719	2.4774	0	0	2450	0	0	1	-360	360;
	136	152	0.00042	0.00905	0.66794	0	0	3600	0	0	1	-360	360;
	137	143	0.0019	0.0258	0.0984	0	0	2320	0	0	1	-360	360;
	137	150	0.00845	0.07034	0.15954	0	0	1160	0	0	1	-360	360;
	139	142	0.00193	0.02779	4.6712	0	0	3600	0	0	1	-360	360;
	139	147	0.00056	0.01415	1.0429	0	0	3600	0	0	1	-360	360;
	141	143	0.0011	0.0127	0.048	0	0	2320	0	0	1	-360	360;
	142	145	0.00028	0.00753	0.51736	0	0	3600	0	0	1	-360	360;
	142	145	0.00035	0.0075	0.5536	0	0	3600	0	0	1	-360	360;
	142	147	0.0019	0.031	4.1402	0	0	3600	0	0	1	-360	360;
	142	151	0.0006	0.0128	0.9462	0	0	3600	0	0	1	-360	360;
	142	153	0.00044	0.01125	0.8292	0	0	3600	0	0	1	-360	360;
	142	153	0.00044	0.01125	0.8292	0	0	3600	0	0	1	-360	360;
	143	146	0.00138	0.05399	0.15252	0	0	2320	0	0	1	-360	360;
	143	154	0.0032	0.0395	0.144	0	0	2320	0	0	1	-360	360;
	145	151	0.00021	0.00457	0.32336	0	0	3600	0	0	1	-360	360;
	150	154	0.00285	0.03649	0.12656	0	0	2320	0	0	1	-360	360;
	150	154	0.00138	0.03399	0.11252	0	0	2320	0	0	1	-360	360;
	151	152	0.0004	0.0093	0.6856	0	0	3600	0	0	1	-360	360;
	153	175	-0	-0.00935	0	0	0	2134	0	0	1	-360	360;
	153	177	-0	-0.00935	0	0	0	2134	0	0	1	-360	360;
	153	179	-0	-0.0084	0	0	0	2100	0	0	1	-360	360;
	155	156	0.0024	0.0332	0.5849	0	0	0	0	0	1	-360	360;
	155	158	0.0052	0.0602	1.01	0	0	0	0	0	1	-360	360;
	155	158	0.0049	0.0537	0.8843	0	0	0	0	0	1	-360	360;
	155	160	0.0017	0.0225	0.3992	0	0	0	0	0	1	-360	360;
	155	160	0.0021	0.0238	0.3845	0	0	0	0	0	1	-360	360;
	155	165	0.0012	0.0172	0.2987	0	0	0	0	0	1	-360	360;
	155	167	0.0008	0.0106	0.2039	0	0	0	0	0	1	-360	360;
	156	167	0.0016	0.0226	0.381	0	0	0	0	0	1	-360	360;
	157	161	0.0108	0.0965	0.3296	0	0	0	0	0	1	-360	360;
	158	164	0.0096	0.0878	1.4265	0	0	0	0	0	1	-360	360;
	158	165	0.0034	0.0392	0.6524	0	0	0	0	0	1	-360	360;
	158	166	0.0034	0.0374	0.6208	0	0	0	0	0	1	-360	360;
	158	166	0.0034	0.0372	0.6182	0	0	0	0	0	1	-360	360;
	160	166	0.0038	0.034	0.5824	0	0	0	0	0	1	-360	360;
	160	166	0.0032	0.0349	0.5722	0	0	0	0	0	1	-360	360;
	168	169	0.00103	0.02338	1.5804	0	0	3020	0	0	1	-360	360;
	170	171	0.00107	0.0247	1.527	0	0	3020	0	0	1	-360	360;
	172	173	0.00103	0.0323	2.796	0	0	0	0	0	1	-360	360;
	174	175	0.00123	0.02659	1.987	0	0	3600	0	0	1	-360	360;
	176	177	0.00123	0.02662	1.9888	0	0	3600	0	0	0	-360	360;
	178	179	0.00112	0.02517	1.8359	0	0	3600	0	0	1	-360	360;
	2	3	-0	0.0146	0	0	0	0	1	0	1	-360	360;
	2	4	-0	0.0173	0	0	0	0	0.9545	0	1	-360	360;
	5	6	-0	0.01238	0	0	0	0	1	0	1	-360	360;
	5	11	-0	0.015	0	0	0	0	1	0	1	-360	360;
	7	8	-0	0.011	0	0	0	0	1.063	0	1	-360	360;
	7	8	-0	0.011	0	0	0	0	1.063	0	1	-360	360;
	8	9	-0	0.0059	0	0	0	3000	1	0	1	-360	360;
	8	10	0.00028	0.0138	0	0	0	430	1	0	1	-360	360;
	8	10	0.00029	0.0139	0	0	0	430	1	0	1	-360	360;
	12	13	-0	0.00666	0	0	0	2000	1.08	0	1	-360	360;
	16	15	6e-05	0.00495	0	0	0	3066	1.1061	0	1	-360	360;
	17	18	-0	0.006	0	0	0	0	1.0435	0	1	-360	360;
	31	30	-0	0.0015	0	0	0	0	1.05	0	1	-360	360;
	32	33	-0	0.01	0	0	0	0	1.1	0	1	-360	360;
	34	35	-0	0.002	0	0	0	0	1	0	1	-360	360;
	85	36	-0	0.0046	0	0	0	2000	1	0	1	-360	360;
	38	48	0.00013	0.00693	0	0	0	0	1.05	0	1	-360	360;
	39	40	0.0005	0.0238	0	0	0	0	1	0	1	-360	360;
	42	43	0.00058	0.02535	0	0	0	0	1.0491	0	1	-360	360;
	44	45	-0	0.0052	0	0	0	0	1.025	0	1	-360	360;
	48	47	0.00499	0.11473	0	0	0	0	1.0478	0	1	-360	360;
	49	48	0.00026	0.01386	0	0	0	0	1.05	0	1	-360	360;
	52	51	0.00059	0.01491	0	0	0	0	1.0017	0	1	-360	360;
	53	51	0.00059	0.01491	0	0	0	0	1.0017	0	1	-360	360;
	54	51	0.0003	0.0133	0	0	0	0	1	0	1	-360	360;
	54	51	0.0003	0.0134	0	0	0	0	1	0	1	-360	360;
	56	55	0.00013	0.01386	0	0	0	0	1.0106	0	1	-360	360;
	56	55	0.00013	0.01386	0	0	0	0	1.0106	0	1	-360	360;
	60	61	-0	0.00115	0	0	0	0	1.0133	0	1	-360	360;
	64	63	0.0002	0.02338	0	0	0	0	0.9789	0	1	-360	360;
	66	65	-0	0.005	0	0	0	0	1.09	0	1	-360	360;
	68	67	0.00089	0.0299	0	0	0	250	0.9873	0	1	-360	360;
	69	68	0.0002	0.01181	0	0	0	1008	1.0238	0	1	-360	360;
	69	68	9e-05	0.00735	0	0	0	1300	1.0238	0	1	-360	360;
	68	70	-0	0.01034	0	0	0	2000	1.0455	0	1	-360	360;
	72	71	-0	0.00221	0	0	0	2500	1.0234	0	1	-360	360;
	76	77	-0	0.00375	0	0	0	5000	1.0977	0	1	-360	360;
	80	79	-0	0.0025	0	0	0	0	1.066	0	1	-360	360;
	84	85	-0	0.0072	0	0	0	1500	1.05	0	1	-360	360;
	102	103	-0	0.0098	0	0	0	0	1.05	0	1	-360	360;
	109	108	0.0003	0.0174	0	0	0	840	1.119	0	1	-360	360;
	109	108	0.0002	0.0119	0	0	0	1120	1.119	0	1	-360	360;
	112	113	-0	0.02281	0	0	0	0	0.9174	0	1	-360	360;
	113	114	0.0001	0.0174	0	0	0	840	1.119	0	1	-360	360;
	116	117	-0	0.01815	0	0	0	0	0.9091	0	1	-360	360;
	117	119	0.0002	0.0125	0	0	0	1120	1.119	0	1	-360	360;
	118	119	-0	0.00448	0	0	0	0	0.9452	0	1	-360	360;
	138	139	-0	0.01512	0	0	0	0	0.996	0	1	-360	360;
	140	141	-0	0.00365	0	0	0	0	0.9787	0	1	-360	360;
	144	145	-0	0.00516	0	0	0	0	0.9843	0	1	-360	360;
	145	146	-0	0.005	0	0	0	0	1	0	1	-360	360;
	147	148	-0	0.0098	0	0	0	0	1.05	0	1	-360	360;
	149	150	-0	0.01026	0	0	0	0	0.9871	0	1	-360	360;
	153	154	-0	0.01149	0	0	0	1120	1.0631	0	1	-360	360;
	153	154	-0	0.01149	0	0	0	1120	1.0631	0	1	-360	360;
	153	154	-0	0.01149	0	0	0	1120	1.0631	0	1	-360	360;
	156	157	0.0003	0.0181	0	0	0	0	1	0	1	-360	360;
	158	159	0.0002	0.0058	0	0	0	0	0.9855	0	1	-360	360;
	161	162	0.0005	0.0141	0	0	0	0	1.0588	0	1	-360	360;
	164	163	-0	0.0195	0	0	0	0	1	0	1	-360	360;
];
